Circuit: * C:\Users\João Pedro\Dropbox\Dispositivos\simulaçoes\passa_baixo_2.asc

Direct Newton iteration for .op point succeeded.

Date: Thu Mar 31 11:58:53 2016
Total elapsed time: 1.996 seconds.

tnom = 27
temp = 27
method = trap
totiter = 4
traniter = 0
tranpoints = 0
accept = 0
rejected = 0
matrix size = 19
fillins = 6
solver = Normal
Matrix Compiler1:      72 opcodes
Matrix Compiler2: 2.10 KB object code size

