Circuit: * C:\Users\João Pedro\Dropbox\Dispositivos\simulaçoes\passa_baixa.asc

Direct Newton iteration for .op point succeeded.

Date: Fri Dec 11 15:40:16 2015
Total elapsed time: 1.576 seconds.

tnom = 27
temp = 27
method = trap
totiter = 4
traniter = 0
tranpoints = 0
accept = 0
rejected = 0
matrix size = 24
fillins = 10
solver = Normal
Matrix Compiler1:     102 opcodes
Matrix Compiler2: 2.82 KB object code size

