Circuit: * C:\Users\João Pedro\Dropbox\Dispositivos\simulaçoes\teste.asc

Number of points per decade reduced from 100000 to 11893.
Direct Newton iteration for .op point succeeded.

Date: Fri Dec 11 16:45:41 2015
Total elapsed time: 1.370 seconds.

tnom = 27
temp = 27
method = trap
totiter = 4
traniter = 0
tranpoints = 0
accept = 0
rejected = 0
matrix size = 16
fillins = 6
solver = Normal
Matrix Compiler1:      60 opcodes
Matrix Compiler2: 1.69 KB object code size

